*Heading
** Job name: 3pct2Mesh Model name: Model-1
** Generated by: Abaqus/CAE 6.14-1
*Node
 1, -0.5, -0.5, 1
 2, -0.5,  0.5, 1
 3, -0.5, -0.5, 0
 4, -0.5, 0.5, 0
 5, 0.5, -0.5, 1
 6, 0.5, 0.5, 1
 7, 0.5, -0.5,  0
 8,  0.5, 0.5, 0
*Element, type=C3D8
1, 5, 6, 8, 7, 1, 2, 4, 3
*Nset, nset=Al-1, generate
 1, 8, 1
*Elset, elset=Al-1
 1,
*NODE, NSET=Ref1
999998, 1., 1.1, 0.0
*NODE, NSET=Ref2
999999, 1.1, 1., 0.0
*NODE, NSET=Ref3
999997, 1, 1., 2
** Section: Aluminum
** Section: Section-1
*Solid Section, elset=Al-1, material=Al-1
*Nset, nset=ORIGIN_1, unsorted
 1
*Nset, nset=TOPORI_1, unsorted
 2
*Nset, nset=ORIGIN, unsorted
 3
*Nset, nset=TOPORI, unsorted
  4
*Nset, nset=RIGHTORI_1, unsorted
 5
*Nset, nset=TOPRIGHT_1,unsorted
 6
*Nset, nset=RIGHTORI, unsorted
 7
*Nset, nset=TOPRIGHT, unsorted
 8
*Nset, nset=FRONTFACE, unsorted
 3,
 4,
  7,
 8,
*Nset, nset=BACKWARDFACE, unsorted
 1,
 2,
 5,
 6,
*Nset, nset=LEFTFACE, unsorted
 3,
 4,
*Nset, nset=RIGHTFACE, unsorted
 7,
 8,
*Nset, nset=BOTFACE, unsorted
 3,
*Nset, nset=TOPFACE, unsorted
 4,
*Nset, nset=Al-1, generate
 1,1,1
*Elset, elset=Al-1,generate
 1,8,1
*Equation
3
BACKWARDFACE,1,-1
FRONTFACE,1,1
Ref3,1,1
*Equation
3
BACKWARDFACE,2,-1
FRONTFACE,2,1
Ref3,2,1
*Equation
3
BACKWARDFACE,3,-1
FRONTFACE,3,1
Ref3,3,1
*Equation
3
RIGHTFACE,1,-1
LEFTFACE,1,1
Ref1,1,1
*Equation
3
RIGHTFACE,2,-1
LEFTFACE,2,1
Ref1,2,1
*Equation
3
RIGHTFACE,3,-1
LEFTFACE,3,1
Ref1,3,1
*Equation
3
TOPFACE,1,-1
BOTFACE,1,1
Ref2,1,1
*Equation
3
TOPFACE,2,-1
BOTFACE,2,1
Ref2,2,1
*Equation
3
TOPFACE,3,-1
BOTFACE,3,1
Ref2,3,1
** 
** MATERIALS
** 
*Material, name=Al-1
*USER MATERIAL, CONSTANTS = 15
 0, 1, 0, 1.00, 1, 0, 0, 0,
 0, 0, 0, 0.500, 1.000, 1, 5
*DEPVAR
43
*EXPANSION
13.9E-6, 25.
13.9E-6, 500.
14.00E-6, 600.
14.35E-6, 700.
14.50E-6, 800.
14.80E-6, 900.
15.10E-6, 1000.
16.10E-6, 1100.
*Initial conditions, type=temperature
Al-1, 20
*Material, name=Hole
*Elastic 
 1e-05, 0.3
*AMPLITUDE, NAME=DISP, VALUE=RELATIVE, TIME=STEP TIME 
 0.0, 0.0, 10000., 1.0
*Boundary
ORIGIN,1,3
Ref1,2,3
Ref3,2,2
** ----------------------------------------------------------------
** 
** STEP: Step-1
** 
*Step, name=Step-1, nlgeom=YES, inc=1000
*Static
1, 1000, 1e-10, 20
*CONTROLS,PARAMETERS=TIME INCREMENTATION
,,,,,,,15,,
**0.667,,,,,,,
*CONTROLS, PARAMETERS=FIELD, FIELD=Displacement
0.05,0.05,,,,,,
*CONTROLS, PARAMETERS=FIELD, FIELD=Rotation
0.05,0.05,,,,,,
** 
** LOADS
** 
*Boundary, AMPLITUDE=DISP
Ref2, 2, 2, 0.1
** 
** OUTPUT REQUESTS
** 
*Restart, write, frequency=0
** 
** FIELD OUTPUT: F-Output-1
** 
*Output, field, variable=PRESELECT
*ELEMENT OUTPUT,ELSET=Al-1
S,E
*NODE OUTPUT,NSET=Ref2
RF,U
*End Step